! -- SPA files --------
spa_datapath = '$DIN_LOC_ROOT/atm/cam/chem/spa'
spa_file = 'spa_v3.LR.F2010.2011-2025.c_20240405_v3spa.nc'
spa_cycle_yr = 1
