finidat = ' '
fsurdat = '$DIN_LOC_ROOT/lnd/clm2/surfdata_map/surfdata_0.5x0.5_simyr2010_c230922_with_TOP.nc'
